/*--------------------------------*- C++ -*----------------------------------*\
| =========                 |                                                 |
| \\      /  F ield         | OpenFOAM: The Open Source CFD Toolbox           |
|  \\    /   O peration     | Version:  v2112                                 |
|   \\  /    A nd           | Website:  www.openfoam.com                      |
|    \\/     M anipulation  |                                                 |
\*---------------------------------------------------------------------------*/
FoamFile
{
    version     2.0;
    format      ascii;
    class       dictionary;
    object      fvSchemes;
}
// * * * * * * * * * * * * * * * * * * * * * * * * * * * * * * * * * * * * * //

ddtSchemes
{
    default         steadyState;
}

gradSchemes
{
    default         Gauss linear;
    grad(p)         Gauss linear;
    grad(U)         cellLimited Gauss linear 1;
}

divSchemes
{
    default          none;

    div(phi,U)       bounded Gauss upwind;//bounded Gauss linearUpwind grad(U);

    turbulence       bounded Gauss upwind;
    div(phi,k)       $turbulence;
    div(phi,omega)   $turbulence;
    div(phi,nuTilda) $turbulence;
    div(phi,epsilon) $turbulence;
    div(phi,phit)    $turbulence;
    div(phi,f)       $turbulence;

    div((nuEff*dev2(T(grad(U))))) Gauss linear;
}

interpolationSchemes
{
    default         linear;
}

laplacianSchemes
{
    default         Gauss linear limited 0.333;
}

snGradSchemes
{
    default         limited 0.333;
}

wallDist
{
    method          meshWave;
}


// ************************************************************************* //
